&NAMGEN
  maxl = 11,
  maxb = 11,
  mlevel = 137,
  mlevelist = "127/to/137",
  mnauf = 159,
  metapar = 77,
  rlo0 = 10.0,
  rlo1 = 20.0,
  rla0 = 40.0,
  rla1 = 50.0,
  momega = 0,
  momegadiff = 0,
  mgauss = 0,
  msmooth = 0,
  meta = 1,
  metadiff = 0,
  mdpdeta = 1
/
